<?xml version="1.0" encoding="UTF-8"?>

<!-- generated on 2021-09-09 10:53:40 by Eclipse SUMO netedit Version 1.10.0
<configuration xmlns:xsi="http://www.w3.org/2001/XMLSchema-instance" xsi:noNamespaceSchemaLocation="http://sumo.dlr.de/xsd/netconvertConfiguration.xsd">

    <input>
        <sumo-net-file value="C:\Users\oling\Sumo\PROTOTYPEMM\PROTOTYPE1.net.xml"/>
    </input>

    <output>
        <output-file value="C:\Users\oling\Sumo\PROTOTYPEMM\PROTOTYPE1.net.xml"/>
    </output>

    <processing>
        <geometry.min-radius.fix.railways value="false"/>
        <geometry.max-grade.fix value="false"/>
        <offset.disable-normalization value="true"/>
        <lefthand value="true"/>
    </processing>

    <junctions>
        <no-turnarounds value="true"/>
        <junctions.corner-detail value="5"/>
        <junctions.limit-turn-speed value="5.5"/>
        <rectangular-lane-cut value="false"/>
    </junctions>

    <pedestrian>
        <walkingareas value="false"/>
    </pedestrian>

    <report>
        <aggregate-warnings value="5"/>
    </report>

</configuration>
-->

<net version="1.9" junctionCornerDetail="5" lefthand="true" limitTurnSpeed="5.50" xmlns:xsi="http://www.w3.org/2001/XMLSchema-instance" xsi:noNamespaceSchemaLocation="http://sumo.dlr.de/xsd/net_file.xsd">

    <location netOffset="0.00,0.00" convBoundary="-2700.00,-250.00,2500.00,250.00" origBoundary="-10000000000.00,-10000000000.00,10000000000.00,10000000000.00" projParameter="!"/>

    <edge id=":10_0" function="internal">
        <lane id=":10_0_0" index="0" speed="6.51" length="9.03" shape="1968.40,-10.40 1968.05,-7.95 1967.00,-6.20 1965.25,-5.15 1962.80,-4.80"/>
    </edge>
    <edge id=":10_1" function="internal">
        <lane id=":10_1_0" index="0" speed="13.89" length="20.80" shape="1968.40,-10.40 1968.40,10.40"/>
    </edge>
    <edge id=":10_2" function="internal">
        <lane id=":10_2_0" index="0" speed="8.67" length="7.89" shape="1968.40,-10.40 1968.95,-5.15 1970.00,-2.76"/>
    </edge>
    <edge id=":10_14" function="internal">
        <lane id=":10_14_0" index="0" speed="8.67" length="8.97" shape="1970.00,-2.76 1970.60,-1.40 1973.35,0.85 1977.20,1.60"/>
    </edge>
    <edge id=":10_3" function="internal">
        <lane id=":10_3_0" index="0" speed="6.51" length="9.03" shape="1977.20,-4.80 1974.75,-5.15 1973.00,-6.20 1971.95,-7.95 1971.60,-10.40"/>
    </edge>
    <edge id=":10_4" function="internal">
        <lane id=":10_4_0" index="0" speed="13.89" length="14.40" shape="1977.20,-4.80 1962.80,-4.80"/>
        <lane id=":10_4_1" index="1" speed="13.89" length="14.40" shape="1977.20,-1.60 1962.80,-1.60"/>
    </edge>
    <edge id=":10_6" function="internal">
        <lane id=":10_6_0" index="0" speed="8.67" length="5.26" shape="1977.20,-1.60 1973.35,-0.85 1972.31,0.00"/>
    </edge>
    <edge id=":10_15" function="internal">
        <lane id=":10_15_0" index="0" speed="8.67" length="11.59" shape="1972.31,0.00 1970.60,1.40 1968.95,5.15 1968.40,10.40"/>
    </edge>
    <edge id=":10_7" function="internal">
        <lane id=":10_7_0" index="0" speed="6.51" length="9.03" shape="1971.60,10.40 1971.95,7.95 1973.00,6.20 1974.75,5.15 1977.20,4.80"/>
    </edge>
    <edge id=":10_8" function="internal">
        <lane id=":10_8_0" index="0" speed="13.89" length="20.80" shape="1971.60,10.40 1971.60,-10.40"/>
    </edge>
    <edge id=":10_9" function="internal">
        <lane id=":10_9_0" index="0" speed="8.67" length="7.89" shape="1971.60,10.40 1971.05,5.15 1970.00,2.76"/>
    </edge>
    <edge id=":10_16" function="internal">
        <lane id=":10_16_0" index="0" speed="8.67" length="8.97" shape="1970.00,2.76 1969.40,1.40 1966.65,-0.85 1962.80,-1.60"/>
    </edge>
    <edge id=":10_10" function="internal">
        <lane id=":10_10_0" index="0" speed="6.51" length="9.03" shape="1962.80,4.80 1965.25,5.15 1967.00,6.20 1968.05,7.95 1968.40,10.40"/>
    </edge>
    <edge id=":10_11" function="internal">
        <lane id=":10_11_0" index="0" speed="13.89" length="14.40" shape="1962.80,4.80 1977.20,4.80"/>
        <lane id=":10_11_1" index="1" speed="13.89" length="14.40" shape="1962.80,1.60 1977.20,1.60"/>
    </edge>
    <edge id=":10_13" function="internal">
        <lane id=":10_13_0" index="0" speed="8.67" length="5.26" shape="1962.80,1.60 1966.65,0.85 1967.69,-0.00"/>
    </edge>
    <edge id=":10_17" function="internal">
        <lane id=":10_17_0" index="0" speed="8.67" length="11.59" shape="1967.69,-0.00 1969.40,-1.40 1971.05,-5.15 1971.60,-10.40"/>
    </edge>
    <edge id=":10A_0" function="internal">
        <lane id=":10A_0_0" index="0" speed="6.51" length="9.03" shape="1968.40,142.80 1968.05,145.25 1967.00,147.00 1965.25,148.05 1962.80,148.40"/>
    </edge>
    <edge id=":10A_1" function="internal">
        <lane id=":10A_1_0" index="0" speed="13.89" length="14.40" shape="1968.40,142.80 1968.40,157.20"/>
    </edge>
    <edge id=":10A_2" function="internal">
        <lane id=":10A_2_0" index="0" speed="8.00" length="5.93" shape="1968.40,142.80 1968.95,146.65 1970.00,148.40"/>
    </edge>
    <edge id=":10A_12" function="internal">
        <lane id=":10A_12_0" index="0" speed="8.00" length="8.26" shape="1970.00,148.40 1970.60,149.40 1973.35,151.05 1977.20,151.60"/>
    </edge>
    <edge id=":10A_3" function="internal">
        <lane id=":10A_3_0" index="0" speed="6.51" length="9.03" shape="1977.20,148.40 1974.75,148.05 1973.00,147.00 1971.95,145.25 1971.60,142.80"/>
    </edge>
    <edge id=":10A_4" function="internal">
        <lane id=":10A_4_0" index="0" speed="13.89" length="14.40" shape="1977.20,148.40 1962.80,148.40"/>
    </edge>
    <edge id=":10A_5" function="internal">
        <lane id=":10A_5_0" index="0" speed="8.00" length="14.19" shape="1977.20,148.40 1973.35,148.95 1970.60,150.60 1968.95,153.35 1968.40,157.20"/>
    </edge>
    <edge id=":10A_6" function="internal">
        <lane id=":10A_6_0" index="0" speed="6.51" length="9.03" shape="1971.60,157.20 1971.95,154.75 1973.00,153.00 1974.75,151.95 1977.20,151.60"/>
    </edge>
    <edge id=":10A_7" function="internal">
        <lane id=":10A_7_0" index="0" speed="13.89" length="14.40" shape="1971.60,157.20 1971.60,142.80"/>
    </edge>
    <edge id=":10A_8" function="internal">
        <lane id=":10A_8_0" index="0" speed="8.00" length="5.93" shape="1971.60,157.20 1971.05,153.35 1970.00,151.60"/>
    </edge>
    <edge id=":10A_13" function="internal">
        <lane id=":10A_13_0" index="0" speed="8.00" length="8.26" shape="1970.00,151.60 1969.40,150.60 1966.65,148.95 1962.80,148.40"/>
    </edge>
    <edge id=":10A_9" function="internal">
        <lane id=":10A_9_0" index="0" speed="6.51" length="9.03" shape="1962.80,151.60 1965.25,151.95 1967.00,153.00 1968.05,154.75 1968.40,157.20"/>
    </edge>
    <edge id=":10A_10" function="internal">
        <lane id=":10A_10_0" index="0" speed="13.89" length="14.40" shape="1962.80,151.60 1977.20,151.60"/>
    </edge>
    <edge id=":10A_11" function="internal">
        <lane id=":10A_11_0" index="0" speed="8.00" length="14.19" shape="1962.80,151.60 1966.65,151.05 1969.40,149.40 1971.05,146.65 1971.60,142.80"/>
    </edge>
    <edge id=":11_0" function="internal">
        <lane id=":11_0_0" index="0" speed="7.33" length="11.73" shape="2135.20,-10.40 2134.65,-7.95 2133.00,-6.20 2130.25,-5.15 2126.40,-4.80"/>
    </edge>
    <edge id=":11_1" function="internal">
        <lane id=":11_1_0" index="0" speed="13.89" length="20.80" shape="2135.20,-10.40 2135.20,10.40"/>
        <lane id=":11_1_1" index="1" speed="13.89" length="20.80" shape="2138.40,-10.40 2138.40,10.40"/>
    </edge>
    <edge id=":11_3" function="internal">
        <lane id=":11_3_0" index="0" speed="9.84" length="6.41" shape="2138.40,-10.40 2139.35,-5.15 2140.00,-4.29"/>
    </edge>
    <edge id=":11_16" function="internal">
        <lane id=":11_16_0" index="0" speed="9.84" length="15.58" shape="2140.00,-4.29 2142.20,-1.40 2146.95,0.85 2153.60,1.60"/>
    </edge>
    <edge id=":11_4" function="internal">
        <lane id=":11_4_0" index="0" speed="6.51" length="9.03" shape="2153.60,-4.80 2151.15,-5.15 2149.40,-6.20 2148.35,-7.95 2148.00,-10.40"/>
    </edge>
    <edge id=":11_5" function="internal">
        <lane id=":11_5_0" index="0" speed="13.89" length="27.20" shape="2153.60,-4.80 2126.40,-4.80"/>
        <lane id=":11_5_1" index="1" speed="13.89" length="27.20" shape="2153.60,-1.60 2126.40,-1.60"/>
    </edge>
    <edge id=":11_7" function="internal">
        <lane id=":11_7_0" index="0" speed="9.84" length="8.68" shape="2153.60,-1.60 2146.95,-0.85 2145.16,-0.00"/>
    </edge>
    <edge id=":11_17" function="internal">
        <lane id=":11_17_0" index="0" speed="9.84" length="13.32" shape="2145.16,-0.00 2142.20,1.40 2139.35,5.15 2138.40,10.40"/>
    </edge>
    <edge id=":11_8" function="internal">
        <lane id=":11_8_0" index="0" speed="7.33" length="11.73" shape="2144.80,10.40 2145.35,7.95 2147.00,6.20 2149.75,5.15 2153.60,4.80"/>
    </edge>
    <edge id=":11_9" function="internal">
        <lane id=":11_9_0" index="0" speed="13.89" length="20.80" shape="2144.80,10.40 2144.80,-10.40"/>
        <lane id=":11_9_1" index="1" speed="13.89" length="20.80" shape="2141.60,10.40 2141.60,-10.40"/>
    </edge>
    <edge id=":11_11" function="internal">
        <lane id=":11_11_0" index="0" speed="9.84" length="6.41" shape="2141.60,10.40 2140.65,5.15 2140.00,4.29"/>
    </edge>
    <edge id=":11_18" function="internal">
        <lane id=":11_18_0" index="0" speed="9.84" length="15.58" shape="2140.00,4.29 2137.80,1.40 2133.05,-0.85 2126.40,-1.60"/>
    </edge>
    <edge id=":11_12" function="internal">
        <lane id=":11_12_0" index="0" speed="6.51" length="9.03" shape="2126.40,4.80 2128.85,5.15 2130.60,6.20 2131.65,7.95 2132.00,10.40"/>
    </edge>
    <edge id=":11_13" function="internal">
        <lane id=":11_13_0" index="0" speed="13.89" length="27.20" shape="2126.40,4.80 2153.60,4.80"/>
        <lane id=":11_13_1" index="1" speed="13.89" length="27.20" shape="2126.40,1.60 2153.60,1.60"/>
    </edge>
    <edge id=":11_15" function="internal">
        <lane id=":11_15_0" index="0" speed="9.84" length="8.68" shape="2126.40,1.60 2133.05,0.85 2134.84,0.00"/>
    </edge>
    <edge id=":11_19" function="internal">
        <lane id=":11_19_0" index="0" speed="9.84" length="13.32" shape="2134.84,0.00 2137.80,-1.40 2140.65,-5.15 2141.60,-10.40"/>
    </edge>
    <edge id=":11A_0" function="internal">
        <lane id=":11A_0_0" index="0" speed="13.89" length="8.81" shape="2132.00,46.00 2132.50,48.46 2133.60,50.00 2134.70,51.54 2135.20,54.00"/>
        <lane id=":11A_0_1" index="1" speed="13.89" length="8.81" shape="2135.20,46.00 2135.70,48.46 2136.80,50.00 2137.90,51.54 2138.40,54.00"/>
    </edge>
    <edge id=":11A_2" function="internal">
        <lane id=":11A_2_0" index="0" speed="13.89" length="8.00" shape="2144.80,54.00 2144.80,46.00"/>
        <lane id=":11A_2_1" index="1" speed="13.89" length="8.00" shape="2141.60,54.00 2141.60,46.00"/>
    </edge>
    <edge id=":11C_0" function="internal">
        <lane id=":11C_0_0" index="0" speed="6.51" length="9.03" shape="2135.20,142.80 2134.85,145.25 2133.80,147.00 2132.05,148.05 2129.60,148.40"/>
    </edge>
    <edge id=":11C_1" function="internal">
        <lane id=":11C_1_0" index="0" speed="13.89" length="14.39" shape="2138.40,142.80 2138.42,157.19"/>
    </edge>
    <edge id=":11C_2" function="internal">
        <lane id=":11C_2_0" index="0" speed="13.89" length="14.81" shape="2141.62,157.18 2142.11,153.86 2143.21,150.88 2144.30,147.45 2144.80,142.80"/>
    </edge>
    <edge id=":11C_3" function="internal">
        <lane id=":11C_3_0" index="0" speed="8.68" length="5.25" shape="2141.62,157.18 2140.86,153.34 2140.02,152.31"/>
    </edge>
    <edge id=":11C_6" function="internal">
        <lane id=":11C_6_0" index="0" speed="8.68" length="11.60" shape="2140.02,152.31 2138.60,150.60 2134.85,148.95 2129.60,148.40"/>
    </edge>
    <edge id=":11C_4" function="internal">
        <lane id=":11C_4_0" index="0" speed="7.34" length="11.74" shape="2129.60,151.60 2133.45,151.95 2136.21,153.00 2137.87,154.75 2138.42,157.19"/>
    </edge>
    <edge id=":11C_5" function="internal">
        <lane id=":11C_5_0" index="0" speed="8.67" length="16.85" shape="2129.60,151.60 2134.85,151.05 2138.60,149.40 2140.85,146.65 2141.60,142.80"/>
    </edge>
    <edge id=":2_0" function="internal">
        <lane id=":2_0_0" index="0" speed="6.51" length="9.03" shape="-2358.00,-10.40 -2358.35,-7.95 -2359.40,-6.20 -2361.15,-5.15 -2363.60,-4.80"/>
    </edge>
    <edge id=":2_1" function="internal">
        <lane id=":2_1_0" index="0" speed="13.89" length="20.80" shape="-2358.00,-10.40 -2358.00,10.40"/>
        <lane id=":2_1_1" index="1" speed="13.89" length="20.80" shape="-2354.80,-10.40 -2354.80,10.40"/>
        <lane id=":2_1_2" index="2" speed="13.89" length="20.80" shape="-2351.60,-10.40 -2351.60,10.40"/>
    </edge>
    <edge id=":2_4" function="internal">
        <lane id=":2_4_0" index="0" speed="9.84" length="4.42" shape="-2351.60,-10.40 -2350.81,-6.05"/>
    </edge>
    <edge id=":2_18" function="internal">
        <lane id=":2_18_0" index="0" speed="9.84" length="17.57" shape="-2350.81,-6.05 -2350.65,-5.15 -2347.80,-1.40 -2343.05,0.85 -2336.40,1.60"/>
    </edge>
    <edge id=":2_5" function="internal">
        <lane id=":2_5_0" index="0" speed="6.51" length="9.03" shape="-2336.40,-4.80 -2338.85,-5.15 -2340.60,-6.20 -2341.65,-7.95 -2342.00,-10.40"/>
    </edge>
    <edge id=":2_6" function="internal">
        <lane id=":2_6_0" index="0" speed="13.89" length="27.20" shape="-2336.40,-4.80 -2363.60,-4.80"/>
        <lane id=":2_6_1" index="1" speed="13.89" length="27.20" shape="-2336.40,-1.60 -2363.60,-1.60"/>
    </edge>
    <edge id=":2_8" function="internal">
        <lane id=":2_8_0" index="0" speed="9.84" length="6.57" shape="-2336.40,-1.60 -2342.93,-0.86"/>
    </edge>
    <edge id=":2_19" function="internal">
        <lane id=":2_19_0" index="0" speed="9.84" length="15.42" shape="-2342.93,-0.86 -2343.05,-0.85 -2347.80,1.40 -2350.65,5.15 -2351.60,10.40"/>
    </edge>
    <edge id=":2_9" function="internal">
        <lane id=":2_9_0" index="0" speed="6.51" length="9.03" shape="-2342.00,10.40 -2341.65,7.95 -2340.60,6.20 -2338.85,5.15 -2336.40,4.80"/>
    </edge>
    <edge id=":2_10" function="internal">
        <lane id=":2_10_0" index="0" speed="13.89" length="20.80" shape="-2342.00,10.40 -2342.00,-10.40"/>
        <lane id=":2_10_1" index="1" speed="13.89" length="20.80" shape="-2345.20,10.40 -2345.20,-10.40"/>
        <lane id=":2_10_2" index="2" speed="13.89" length="20.80" shape="-2348.40,10.40 -2348.40,-10.40"/>
    </edge>
    <edge id=":2_13" function="internal">
        <lane id=":2_13_0" index="0" speed="9.84" length="4.42" shape="-2348.40,10.40 -2349.19,6.05"/>
    </edge>
    <edge id=":2_20" function="internal">
        <lane id=":2_20_0" index="0" speed="9.84" length="17.57" shape="-2349.19,6.05 -2349.35,5.15 -2352.20,1.40 -2356.95,-0.85 -2363.60,-1.60"/>
    </edge>
    <edge id=":2_14" function="internal">
        <lane id=":2_14_0" index="0" speed="6.51" length="9.03" shape="-2363.60,4.80 -2361.15,5.15 -2359.40,6.20 -2358.35,7.95 -2358.00,10.40"/>
    </edge>
    <edge id=":2_15" function="internal">
        <lane id=":2_15_0" index="0" speed="13.89" length="27.20" shape="-2363.60,4.80 -2336.40,4.80"/>
        <lane id=":2_15_1" index="1" speed="13.89" length="27.20" shape="-2363.60,1.60 -2336.40,1.60"/>
    </edge>
    <edge id=":2_17" function="internal">
        <lane id=":2_17_0" index="0" speed="9.84" length="6.57" shape="-2363.60,1.60 -2357.07,0.86"/>
    </edge>
    <edge id=":2_21" function="internal">
        <lane id=":2_21_0" index="0" speed="9.84" length="15.42" shape="-2357.07,0.86 -2356.95,0.85 -2352.20,-1.40 -2349.35,-5.15 -2348.40,-10.40"/>
    </edge>
    <edge id=":2A_0" function="internal">
        <lane id=":2A_0_0" index="0" speed="13.89" length="8.80" shape="-2358.00,46.00 -2357.50,48.46 -2356.40,50.00 -2355.30,51.54 -2354.80,54.00"/>
        <lane id=":2A_0_1" index="1" speed="13.89" length="8.80" shape="-2354.80,46.00 -2354.30,48.46 -2353.20,50.00 -2352.10,51.54 -2351.60,54.00"/>
    </edge>
    <edge id=":2A_2" function="internal">
        <lane id=":2A_2_0" index="0" speed="13.89" length="8.54" shape="-2345.20,54.00 -2344.70,51.54 -2343.60,50.00 -2342.50,48.46 -2342.00,46.00"/>
        <lane id=":2A_2_1" index="1" speed="13.89" length="8.54" shape="-2348.40,54.00 -2347.90,51.54 -2346.80,50.00 -2345.70,48.46 -2345.20,46.00"/>
        <lane id=":2A_2_2" index="2" speed="13.89" length="8.54" shape="-2348.40,54.00 -2348.40,46.00"/>
    </edge>
    <edge id=":2A1_0" function="internal">
        <lane id=":2A1_0_0" index="0" speed="13.89" length="14.84" shape="-2354.87,142.79 -2354.38,147.45 -2353.28,150.89 -2352.18,153.88 -2351.67,157.20"/>
    </edge>
    <edge id=":2A1_1" function="internal">
        <lane id=":2A1_1_0" index="0" speed="8.67" length="5.27" shape="-2351.67,142.79 -2350.93,146.65 -2350.07,147.69"/>
    </edge>
    <edge id=":2A1_6" function="internal">
        <lane id=":2A1_6_0" index="0" speed="8.67" length="11.58" shape="-2350.07,147.69 -2348.68,149.40 -2344.93,151.05 -2339.68,151.60"/>
    </edge>
    <edge id=":2A1_2" function="internal">
        <lane id=":2A1_2_0" index="0" speed="6.51" length="9.03" shape="-2339.68,148.40 -2342.13,148.05 -2343.88,147.00 -2344.93,145.25 -2345.27,142.80"/>
    </edge>
    <edge id=":2A1_3" function="internal">
        <lane id=":2A1_3_0" index="0" speed="8.67" length="16.85" shape="-2339.68,148.40 -2344.93,148.95 -2348.68,150.60 -2350.93,153.35 -2351.67,157.20"/>
    </edge>
    <edge id=":2A1_4" function="internal">
        <lane id=":2A1_4_0" index="0" speed="7.32" length="11.73" shape="-2348.47,157.20 -2347.93,154.75 -2346.28,153.00 -2343.53,151.95 -2339.68,151.60"/>
    </edge>
    <edge id=":2A1_5" function="internal">
        <lane id=":2A1_5_0" index="0" speed="13.89" length="14.41" shape="-2348.47,157.20 -2348.47,142.80"/>
    </edge>
    <edge id=":2B_0" function="internal">
        <lane id=":2B_0_0" index="0" speed="13.89" length="8.54" shape="-2354.80,-54.00 -2355.30,-51.54 -2356.40,-50.00 -2357.50,-48.46 -2358.00,-46.00"/>
        <lane id=":2B_0_1" index="1" speed="13.89" length="8.54" shape="-2351.60,-54.00 -2352.10,-51.54 -2353.20,-50.00 -2354.30,-48.46 -2354.80,-46.00"/>
        <lane id=":2B_0_2" index="2" speed="13.89" length="8.54" shape="-2351.60,-54.00 -2351.60,-46.00"/>
    </edge>
    <edge id=":2B_3" function="internal">
        <lane id=":2B_3_0" index="0" speed="13.89" length="8.81" shape="-2342.00,-46.00 -2342.50,-48.46 -2343.60,-50.00 -2344.70,-51.54 -2345.20,-54.00"/>
        <lane id=":2B_3_1" index="1" speed="13.89" length="8.81" shape="-2345.20,-46.00 -2345.70,-48.46 -2346.80,-50.00 -2347.90,-51.54 -2348.40,-54.00"/>
    </edge>
    <edge id=":2C_0" function="internal">
        <lane id=":2C_0_0" index="0" speed="13.89" length="14.83" shape="-2351.60,-157.20 -2352.10,-153.88 -2353.20,-150.89 -2354.30,-147.46 -2354.80,-142.80"/>
    </edge>
    <edge id=":2C_1" function="internal">
        <lane id=":2C_1_0" index="0" speed="8.67" length="5.26" shape="-2351.60,-157.20 -2350.85,-153.35 -2350.00,-152.31"/>
    </edge>
    <edge id=":2C_6" function="internal">
        <lane id=":2C_6_0" index="0" speed="8.67" length="11.59" shape="-2350.00,-152.31 -2348.60,-150.60 -2344.85,-148.95 -2339.60,-148.40"/>
    </edge>
    <edge id=":2C_2" function="internal">
        <lane id=":2C_2_0" index="0" speed="7.33" length="11.73" shape="-2339.60,-151.60 -2343.45,-151.95 -2346.20,-153.00 -2347.85,-154.75 -2348.40,-157.20"/>
    </edge>
    <edge id=":2C_3" function="internal">
        <lane id=":2C_3_0" index="0" speed="8.67" length="16.85" shape="-2339.60,-151.60 -2344.85,-151.05 -2348.60,-149.40 -2350.85,-146.65 -2351.60,-142.80"/>
    </edge>
    <edge id=":2C_4" function="internal">
        <lane id=":2C_4_0" index="0" speed="6.51" length="9.03" shape="-2345.20,-142.80 -2344.85,-145.25 -2343.80,-147.00 -2342.05,-148.05 -2339.60,-148.40"/>
    </edge>
    <edge id=":2C_5" function="internal">
        <lane id=":2C_5_0" index="0" speed="13.89" length="14.40" shape="-2348.40,-142.80 -2348.40,-157.20"/>
    </edge>
    <edge id=":3_0" function="internal">
        <lane id=":3_0_0" index="0" speed="6.51" length="9.03" shape="-1621.60,-10.40 -1621.95,-7.95 -1623.00,-6.20 -1624.75,-5.15 -1627.20,-4.80"/>
    </edge>
    <edge id=":3_1" function="internal">
        <lane id=":3_1_0" index="0" speed="13.89" length="20.80" shape="-1621.60,-10.40 -1621.60,10.40"/>
    </edge>
    <edge id=":3_2" function="internal">
        <lane id=":3_2_0" index="0" speed="8.67" length="7.89" shape="-1621.60,-10.40 -1621.05,-5.15 -1620.00,-2.76"/>
    </edge>
    <edge id=":3_14" function="internal">
        <lane id=":3_14_0" index="0" speed="8.67" length="8.97" shape="-1620.00,-2.76 -1619.40,-1.40 -1616.65,0.85 -1612.80,1.60"/>
    </edge>
    <edge id=":3_3" function="internal">
        <lane id=":3_3_0" index="0" speed="6.51" length="9.03" shape="-1612.80,-4.80 -1615.25,-5.15 -1617.00,-6.20 -1618.05,-7.95 -1618.40,-10.40"/>
    </edge>
    <edge id=":3_4" function="internal">
        <lane id=":3_4_0" index="0" speed="13.89" length="14.40" shape="-1612.80,-4.80 -1627.20,-4.80"/>
        <lane id=":3_4_1" index="1" speed="13.89" length="14.40" shape="-1612.80,-1.60 -1627.20,-1.60"/>
    </edge>
    <edge id=":3_6" function="internal">
        <lane id=":3_6_0" index="0" speed="8.67" length="5.26" shape="-1612.80,-1.60 -1616.65,-0.85 -1617.69,0.00"/>
    </edge>
    <edge id=":3_15" function="internal">
        <lane id=":3_15_0" index="0" speed="8.67" length="11.59" shape="-1617.69,0.00 -1619.40,1.40 -1621.05,5.15 -1621.60,10.40"/>
    </edge>
    <edge id=":3_7" function="internal">
        <lane id=":3_7_0" index="0" speed="6.51" length="9.03" shape="-1618.40,10.40 -1618.05,7.95 -1617.00,6.20 -1615.25,5.15 -1612.80,4.80"/>
    </edge>
    <edge id=":3_8" function="internal">
        <lane id=":3_8_0" index="0" speed="13.89" length="20.80" shape="-1618.40,10.40 -1618.40,-10.40"/>
    </edge>
    <edge id=":3_9" function="internal">
        <lane id=":3_9_0" index="0" speed="8.67" length="7.89" shape="-1618.40,10.40 -1618.95,5.15 -1620.00,2.76"/>
    </edge>
    <edge id=":3_16" function="internal">
        <lane id=":3_16_0" index="0" speed="8.67" length="8.97" shape="-1620.00,2.76 -1620.60,1.40 -1623.35,-0.85 -1627.20,-1.60"/>
    </edge>
    <edge id=":3_10" function="internal">
        <lane id=":3_10_0" index="0" speed="6.51" length="9.03" shape="-1627.20,4.80 -1624.75,5.15 -1623.00,6.20 -1621.95,7.95 -1621.60,10.40"/>
    </edge>
    <edge id=":3_11" function="internal">
        <lane id=":3_11_0" index="0" speed="13.89" length="14.40" shape="-1627.20,4.80 -1612.80,4.80"/>
        <lane id=":3_11_1" index="1" speed="13.89" length="14.40" shape="-1627.20,1.60 -1612.80,1.60"/>
    </edge>
    <edge id=":3_13" function="internal">
        <lane id=":3_13_0" index="0" speed="8.67" length="5.26" shape="-1627.20,1.60 -1623.35,0.85 -1622.31,-0.00"/>
    </edge>
    <edge id=":3_17" function="internal">
        <lane id=":3_17_0" index="0" speed="8.67" length="11.59" shape="-1622.31,-0.00 -1620.60,-1.40 -1618.95,-5.15 -1618.40,-10.40"/>
    </edge>
    <edge id=":3A_0" function="internal">
        <lane id=":3A_0_0" index="0" speed="6.51" length="9.03" shape="-1621.60,142.80 -1621.95,145.25 -1623.00,147.00 -1624.75,148.05 -1627.20,148.40"/>
    </edge>
    <edge id=":3A_1" function="internal">
        <lane id=":3A_1_0" index="0" speed="13.89" length="14.40" shape="-1621.60,142.80 -1621.60,157.20"/>
    </edge>
    <edge id=":3A_2" function="internal">
        <lane id=":3A_2_0" index="0" speed="13.89" length="14.40" shape="-1618.40,157.20 -1618.40,142.80"/>
    </edge>
    <edge id=":3A_3" function="internal">
        <lane id=":3A_3_0" index="0" speed="8.00" length="5.93" shape="-1618.40,157.20 -1618.95,153.35 -1620.00,151.60"/>
    </edge>
    <edge id=":3A_6" function="internal">
        <lane id=":3A_6_0" index="0" speed="8.00" length="8.26" shape="-1620.00,151.60 -1620.60,150.60 -1623.35,148.95 -1627.20,148.40"/>
    </edge>
    <edge id=":3A_4" function="internal">
        <lane id=":3A_4_0" index="0" speed="6.51" length="9.03" shape="-1627.20,151.60 -1624.75,151.95 -1623.00,153.00 -1621.95,154.75 -1621.60,157.20"/>
    </edge>
    <edge id=":3A_5" function="internal">
        <lane id=":3A_5_0" index="0" speed="8.00" length="14.19" shape="-1627.20,151.60 -1623.35,151.05 -1620.60,149.40 -1618.95,146.65 -1618.40,142.80"/>
    </edge>
    <edge id=":3B_0" function="internal">
        <lane id=":3B_0_0" index="0" speed="6.51" length="9.03" shape="-1621.60,-157.20 -1621.95,-154.75 -1623.00,-153.00 -1624.75,-151.95 -1627.20,-151.60"/>
    </edge>
    <edge id=":3B_1" function="internal">
        <lane id=":3B_1_0" index="0" speed="13.89" length="14.40" shape="-1621.60,-157.20 -1621.60,-142.80"/>
    </edge>
    <edge id=":3B_2" function="internal">
        <lane id=":3B_2_0" index="0" speed="13.89" length="14.40" shape="-1618.40,-142.80 -1618.40,-157.20"/>
    </edge>
    <edge id=":3B_3" function="internal">
        <lane id=":3B_3_0" index="0" speed="8.00" length="5.93" shape="-1618.40,-142.80 -1618.95,-146.65 -1620.00,-148.40"/>
    </edge>
    <edge id=":3B_6" function="internal">
        <lane id=":3B_6_0" index="0" speed="8.00" length="8.26" shape="-1620.00,-148.40 -1620.60,-149.40 -1623.35,-151.05 -1627.20,-151.60"/>
    </edge>
    <edge id=":3B_4" function="internal">
        <lane id=":3B_4_0" index="0" speed="6.51" length="9.03" shape="-1627.20,-148.40 -1624.75,-148.05 -1623.00,-147.00 -1621.95,-145.25 -1621.60,-142.80"/>
    </edge>
    <edge id=":3B_5" function="internal">
        <lane id=":3B_5_0" index="0" speed="8.00" length="14.19" shape="-1627.20,-148.40 -1623.35,-148.95 -1620.60,-150.60 -1618.95,-153.35 -1618.40,-157.20"/>
    </edge>
    <edge id=":4_0" function="internal">
        <lane id=":4_0_0" index="0" speed="6.51" length="9.03" shape="-914.80,-10.40 -915.15,-7.95 -916.20,-6.20 -917.95,-5.15 -920.40,-4.80"/>
    </edge>
    <edge id=":4_1" function="internal">
        <lane id=":4_1_0" index="0" speed="9.26" length="19.35" shape="-911.60,-10.40 -910.85,-5.15 -908.60,-1.40 -904.85,0.85 -899.60,1.60"/>
    </edge>
    <edge id=":4_2" function="internal">
        <lane id=":4_2_0" index="0" speed="6.51" length="9.03" shape="-899.60,-4.80 -902.05,-5.15 -903.80,-6.20 -904.85,-7.95 -905.20,-10.40"/>
    </edge>
    <edge id=":4_3" function="internal">
        <lane id=":4_3_0" index="0" speed="13.89" length="20.80" shape="-899.60,-4.80 -920.40,-4.80"/>
        <lane id=":4_3_1" index="1" speed="13.89" length="20.80" shape="-899.60,-1.60 -920.40,-1.60"/>
    </edge>
    <edge id=":4_5" function="internal">
        <lane id=":4_5_0" index="0" speed="13.89" length="20.80" shape="-920.40,4.80 -899.60,4.80"/>
        <lane id=":4_5_1" index="1" speed="13.89" length="20.80" shape="-920.40,1.60 -899.60,1.60"/>
    </edge>
    <edge id=":4_7" function="internal">
        <lane id=":4_7_0" index="0" speed="9.26" length="6.96" shape="-920.40,1.60 -915.15,0.85 -913.73,0.00"/>
    </edge>
    <edge id=":4_8" function="internal">
        <lane id=":4_8_0" index="0" speed="9.26" length="12.40" shape="-913.73,0.00 -911.40,-1.40 -909.15,-5.15 -908.40,-10.40"/>
    </edge>
    <edge id=":4A_0" function="internal">
        <lane id=":4A_0_0" index="0" speed="13.89" length="14.40" shape="-914.80,-157.20 -914.80,-142.80"/>
        <lane id=":4A_0_1" index="1" speed="13.89" length="14.40" shape="-911.60,-157.20 -911.60,-142.80"/>
    </edge>
    <edge id=":4A_2" function="internal">
        <lane id=":4A_2_0" index="0" speed="8.67" length="5.26" shape="-911.60,-157.20 -910.85,-153.35 -910.00,-152.31"/>
    </edge>
    <edge id=":4A_8" function="internal">
        <lane id=":4A_8_0" index="0" speed="8.67" length="11.59" shape="-910.00,-152.31 -908.60,-150.60 -904.85,-148.95 -899.60,-148.40"/>
    </edge>
    <edge id=":4A_3" function="internal">
        <lane id=":4A_3_0" index="0" speed="6.51" length="9.03" shape="-899.60,-151.60 -902.05,-151.95 -903.80,-153.00 -904.85,-154.75 -905.20,-157.20"/>
    </edge>
    <edge id=":4A_4" function="internal">
        <lane id=":4A_4_0" index="0" speed="8.67" length="16.85" shape="-899.60,-151.60 -904.85,-151.05 -908.60,-149.40 -910.85,-146.65 -911.60,-142.80"/>
    </edge>
    <edge id=":4A_5" function="internal">
        <lane id=":4A_5_0" index="0" speed="6.51" length="9.03" shape="-905.20,-142.80 -904.85,-145.25 -903.80,-147.00 -902.05,-148.05 -899.60,-148.40"/>
    </edge>
    <edge id=":4A_6" function="internal">
        <lane id=":4A_6_0" index="0" speed="13.89" length="14.40" shape="-905.20,-142.80 -905.20,-157.20"/>
        <lane id=":4A_6_1" index="1" speed="13.89" length="14.40" shape="-908.40,-142.80 -908.40,-157.20"/>
    </edge>
    <edge id=":5_0" function="internal">
        <lane id=":5_0_0" index="0" speed="6.51" length="9.03" shape="-404.80,-10.40 -405.15,-7.95 -406.20,-6.20 -407.95,-5.15 -410.40,-4.80"/>
    </edge>
    <edge id=":5_1" function="internal">
        <lane id=":5_1_0" index="0" speed="13.89" length="20.80" shape="-404.80,-10.40 -404.80,10.40"/>
        <lane id=":5_1_1" index="1" speed="13.89" length="20.80" shape="-401.60,-10.40 -401.60,10.40"/>
    </edge>
    <edge id=":5_3" function="internal">