<routes xmlns:xsi="http://www.w3.org/2001/XMLSchema-instance" xsi:noNamespaceSchemaLocation="http://sumo.dlr.de/xsd/routes_file.xsd">

 <vTypeDistribution id="vdist1">
 <vType id="car1"
   			vClass="passenger" length="3.8" accel="2.9" decel="7.5"
   			sigma="0.2" maxSpeed="180" color="green" probability="0.1"/>


 <vType id="car2"
   			vClass="passenger" length="4.3" accel="5" decel="8"
   			sigma="0.4" maxSpeed="180" color="green" probability="0.1"/>


   <vType id="car3"
   			vClass="passenger" length="5" accel="4" decel="8"
   			sigma="0.6" maxSpeed="180" probability="0.1"/>    

     <vType id="car4"
   			vClass="taxi" length="3.8" accel="4" decel="8"
   			sigma="1.0" maxSpeed="200" probability="0.1"/>                     

    
 <vType id="car5"
   			vClass="passenger" length="4.3" accel="6" decel="10"
   			sigma="0.8" maxSpeed="180" color="green" probability="0.1"/>


   <vType id="car6"
   			vClass="taxi" length="4.3" accel="4" decel="8"
   			sigma="0.5" maxSpeed="180" probability="0.1"/>    

     <vType id="car7"
   			vClass="taxi" length="5" accel="4" decel="8"
   			sigma="1.0" maxSpeed="180" probability="0.1"/>                                

               
 <vType id="ambulence"
   			vClass="emergency" length="6.5" accel="12" decel="15"
   			sigma="0.1" maxSpeed="200" color="white" probability="0.05"/>

 <vType id="bodaboda1"
   			vClass="motorcycle" length="2.2" accel="6" decel="10"
   			sigma="0.1" maxSpeed="120" color="red" probability="0.05"/>

   <vType id="bodaboda2"
   			vClass="motorcycle" length="2.2" accel="7" decel="12"
   			sigma="0.2" maxSpeed="150" color="red" probability="0.05"/>     

      <vType id="bodaboda3"
   			vClass="motorcycle" length="2.2" accel="7" decel="12"
   			sigma="0.75" maxSpeed="140" color="blue" probability="0.05"/> 

       <vType id="bodaboda4"
   			vClass="motorcycle" length="2.2" accel="7" decel="12"
   			sigma="1.0" maxSpeed="180" color="green" probability="0.05"/>      

          <vType id="bodaboda5"
   			vClass="motorcycle" length="2.2" accel="7" decel="12"
   			sigma="1.0" maxSpeed="180" color="green" probability="0.05"/>                                 

    </vTypeDistribution>


<routeDistribution id="rdist1">

 <route edges="M11 FU18 FU16 FUU13"  id="route_0"/> <!--CITY CENTRE TO KAWE-->
  <route edges="M11 FU18 FU16 J10 J9 J8 J7 FU5 FU7 M4 M3 M2 M1"  id="route_0B"/> <!--CITY CENTRE TO KAWE TO TEGETA-->
 <route edges="M11 M10 M9 M8 M7 M6 M5 M4 M3 M2 FU2 FU0 FUU1"  id="route_1"/> <!--CITY CENTRE to COCACOLA-->
 <route edges="M11 M10 M9 M8 M7 M6 M5 M4 M3 M2 FD3 FD1 FDD2"  id="route_2"/> <!--CITY CENTRE to CHUO-->
 <route edges="M11 M10 M9 M8 M7 M6 M5 M4 M3 FU4 FUU3"  id="route_3"/> <!--CITY CENTRE to ITV-->
 <route edges="M11 M10 M9 M8 M7 M6 M5 M4 M3 FU4 J6 FUU1"  id="route_3B"/> <!--CITY CENTRE to COCACOLA ALT-->
 <route edges="M11 M10 M9 M8 M7 M6 M5 M4 M3 FD4B FDD4"  id="route_4"/> <!--CITY CENTRE to MWENGEPH-->
  <route edges="M11 M10 M9 M8 M7 M6 M5 M4 M3 FD4B C4 FDD2"  id="route_4B"/> <!--CITY CENTRE to CHUO ALT-->
 <route edges="M11 M10 M9 M8 M7 M6 M5 M4 FD5 FDD6"  id="route_5"/> <!--CITY CENTRE to BAMAGA -->
 <route edges="M11 M10 M9 M8 M7 M6 M5 FU8 FU6 FUU5"  id="route_6"/> <!-- CITY CENTRE to MIKOCHENIVIATTCL-->
 <route edges="M11 M10 M9 M8 M7 M6 M5 FD30 FD7 FDD8 FDD10"  id="route_7"/> <!--CITY CENTRE to KNYAMA-->
 <route edges="M11 M10 M9 M8 M7 M6 M5 M4 M3 M2 M1"  id="route_8"/> <!--CITY CENTRE to TEGETA-->

 <route edges="FUU14 FU15 FU17 M23"  id="route_9"/> <!--kawe to CITY CENTRE -->
  <route edges="FUU14  J10 J9 J8 J7 FU5 FU7 M4 M3 M2 M1"  id="route_9B"/> <!--kawe to TEGETA ALT -->
 <route edges="FUU14 FU15 FU17 FD21 FD19"  id="route_10"/> <!--kawe to MAGOMENI-->
 <route edges="FUU14 FU15 FU17 M10 M9 M8 M7 M6 M5 M4 M3 M2 FU2 FU0 FUU1"  id="route_11"/> <!--kawe to COCACOLA-->
 <route edges="FUU14 FU15 FU17 M10 M9 M8 M7 M6 M5 M4 M3 FU4 J6 FUU1"  id="route_13B"/> <!--kawe to COCACOLA ALT-->
 <route edges="FUU14 FU15 FU17 M10 M9 M8 M7 M6 M5 M4 M3 M2 FD3 FD1 FDD2"  id="route_12"/> <!--kawe to CHUO-->
 <route edges="FUU14 FU15 FU17 M10 M9 M8 M7 M6 M5 M4 M3 FU4 FUU3"  id="route_13"/> <!--kawe to ITV-->
 <route edges="FUU14 FU15 FU17 M10 M9 M8 M7 M6 M5 M4 M3 FD4B FDD4"  id="route_14"/> <!--kawe to MWENGEPH-->
  <route edges="FUU14 FU15 FU17 M10 M9 M8 M7 M6 M5 M4 M3 FD4B C4 FDD2"  id="route_14B"/> <!--kawe to CHUO ALT-->
 <route edges="FUU14 FU15 FU17 M10 M9 M8 M7 M6 M5 M4 FD5 FDD6"  id="route_15"/> <!--kawe to BAMAGA -->
 <route edges="FUU14 FU15 FU17 M10 M9 M8 M7 M6 M5 FU8 FU6 FUU5"  id="route_16"/> <!--kawe to MIKOCHENIVIATTCL-->
 <route edges="FUU14 FU15 FU17 M10 M9 M8 M7 M6 M5 FD30 FD7 FDD8 FDD10"  id="route_17"/> <!--kawe to KNYAMA-->
 <route edges="FUU14 FU15 FU17 M10 M9 M8 M7 M6 M5 M4 M3 M2 M1"  id="route_18"/> <!--kawe to TEGETA-->

 <route edges="FD20 FD22 M23"  id="route_19"/> <!--MAGOMENI to CITY CENTRE -->
 <route edges="FD20 FD22 FU18 FU16 FUU13"  id="route_19"/> <!--MAGOMENI to KAWE -->
  <route edges="FD20 FD22 FU18 FU16  J10 J9 J8 J7 FU5 FU7 M4 M3 M2 M1"  id="route_19B"/> <!--MAGOMENI to KAWE TO TEGETA-->
 <route edges="FD20 FD22 M10 M9 M8 M7 M6 M5 M4 M3 M2 FU2 FU0 FUU1"  id="route_20"/> <!--MAGOMENI to COCACOLA-->
 <route edges="FD20 FD22 M10 M9 M8 M7 M6 M5 M4 M3 M2 FD3 FD1 FDD2"  id="route_21"/> <!--MAGOMENI to CHUO-->
 <route edges="FD20 FD22 M10 M9 M8 M7 M6 M5 M4 M3 FU4 FUU3"  id="route_22"/> <!--MAGOMENI to ITV-->
 <route edges="FD20 FD22 M10 M9 M8 M7 M6 M5 M4 M3 FU4 J6 FUU1"  id="route_22B"/> <!--MAGOMENI to COCA ALT-->
 <route edges="FD20 FD22 M10 M9 M8 M7 M6 M5 M4 M3 FD4B FDD4"  id="route_23"/> <!--MAGOMENI to MWENGEPH-->
  <route edges="FD20 FD22 M10 M9 M8 M7 M6 M5 M4 M3 FD4B C4 FDD2"  id="route_23B"/> <!--MAGOMENI to CHUO ALT-->
 <route edges="FD20 FD22 M10 M9 M8 M7 M6 M5 M4 FD5 FDD6"  id="route_24"/> <!--MAGOMENI to BAMAGA -->
 <route edges="FD20 FD22 M10 M9 M8 M7 M6 M5 FU8 FU6 FUU5"  id="route_25"/> <!--MAGOMENI to MIKOCHENIVIATTCL-->
 <route edges="FD20 FD22 M10 M9 M8 M7 M6 M5 FD30 FD7 FDD8 FDD10"  id="route_26"/> <!--MAGOMENI to KNYAMA-->
 <route edges="FD20 FD22 M10 M9 M8 M7 M6 M5 M4 M3 M2 M1"  id="route_27"/> <!--MAGOMENI to TEGETA-->

 <route edges="FUU12 FU13 M22 M23"  id="route_28"/> <!--MKSHOPPERS to CITY CENTRE -->
 <route edges="FUU12 FU13 M22 FD21 FD19"  id="route_29"/> <!--MKSHOPPERS to MAGOMENI -->
 <route edges="FUU12 FU13 M9 M8 M7 M6 M5 M4 M3 M2 FU2 FU0 FUU1"  id="route_30"/> <!--MKSHOPPERS to COCACOLA-->
 <route edges="FUU12 FU13 M9 M8 M7 M6 M5 M4 M3 M2 FD3 FD1 FDD2"  id="route_31"/> <!--MKSHOPPERS to CHUO-->
 <route edges="FUU12 FU13 M9 M8 M7 M6 M5 M4 M3 FU4 FUU3"  id="route_32"/> <!--MKSHOPPERS to ITV-->
 <route edges="FUU12 FU13 M9 M8 M7 M6 M5 M4 M3 FU4 J6 FUU1"  id="route_32B"/> <!--MKSHOPPERS to COCA ALT-->
 <route edges="FUU12 FU13 M9 M8 M7 M6 M5 M4 M3 FU4 J6 FUU1"  id="route_32B"/> <!--MKSHOPPERS to COCA ALT-->
 <route edges="FUU12 FU13 M9 M8 M7 M6 M5 M4 M3 FD4B FDD4"  id="route_33"/> <!--MKSHOPPERS to MWENGEPH-->
  <route edges="FUU12 FU13 M9 M8 M7 M6 M5 M4 M3 FD4B C4 FDD2"  id="route_33B"/> <!--MKSHOPPERS to CHUO ALT-->
 <route edges="FUU12 FU13 M9 M8 M7 M6 M5 M4 FD5 FDD6"  id="route_34"/> <!--MKSHOPPERS to BAMAGA -->
 <route edges="FUU12 FU13 M9 M8 M7 M6 M5 FU8 FU6 FUU5"  id="route_35"/> <!--MKSHOPPERS to MIKOCHENI-->
 <route edges="FUU12 FU13 M9 M8 M7 M6 M5 FD30 FD7 FDD8 FDD10"  id="route_36"/> <!--MKSHOPPERS to KNYAMA-->
 <route edges="FUU12 FU13 M9 M8 M7 M6 M5 M4 M3 M2 M1"  id="route_37"/> <!--MKSHOPPERS to TEGETA-->

 <route edges="FD18 M22 M23"  id="route_38"/> <!--RESIDENCE to CITY CENTRE -->
 <route edges="FD18 M22 FU18 FU16 FUU13"  id="route_38"/> <!--RESIDENCE to KAWE -->
 <route edges="FD18 M22 FD21 FD19"  id="route_39"/> <!--RESIDENCE to MAGOMENI -->
 <route edges="FD18 M9 M8 M7 M6 M5 M4 M3 M2 FU2 FU0 FUU1"  id="route_40"/> <!--RESIDENCE to COCACOLA-->
 <route edges="FD18 M9 M8 M7 M6 M5 M4 M3 M2 FD3 FD1 FDD2"  id="route_41"/> <!--RESIDENCE to CHUO-->
 <route edges="FD18 M9 M8 M7 M6 M5 M4 M3 FU4 FUU3"  id="route_42"/> <!--RESIDENCE to ITV-->
 <route edges="FD18 M9 M8 M7 M6 M5 M4 M3 FU4 J6 FUU1"  id="route_42B"/> <!--RESIDENCE to COCA ALT-->
 <route edges="FD18 M9 M8 M7 M6 M5 M4 M3 FD4B FDD4"  id="route_43"/> <!--RESIDENCE to MWENGEPH-->
  <route edges="FD18 M9 M8 M7 M6 M5 M4 M3 FD4B C4 FDD2"  id="route_43B"/> <!--RESIDENCE to CHUO ALT-->
 <route edges="FD18 M9 M8 M7 M6 M5 M4 FD5 FDD6"  id="route_44"/> <!--RESIDENCE to BAMAGA -->
 <route edges="FD18 M9 M8 M7 M6 M5 FU8 FU6 FUU5"  id="route_45"/> <!--RESIDENCE to MIKOCHENI-->
 <route edges="FD18 M9 M8 M7 M6 M5 FD30 FD7 FDD8 FDD10"  id="route_46"/> <!--RESIDENCE to KNYAMA-->
 <route edges="FD18 M9 M8 M7 M6 M5 M4 M3 M2 M1"  id="route_47"/> <!--RESIDENCE to TEGETA-->

 <route edges="FUU10 FU11 M21 M22 M23"  id="route_48"/> <!--MKAAR to CITY CENTRE -->
 <route edges="FUU10 FU11 M21 M22 FD21 FD19"  id="route_49"/> <!--MKAAR to MAGOMENI -->
 <route edges="FUU10 FU11 M8 M7 M6 M5 M4 M3 M2 FU2 FU0 FUU1"  id="route_50"/> <!--MKAAR to COCACOLA-->
 <route edges="FUU10 FU11 M8 M7 M6 M5 M4 M3 M2 FD3 FD1 FDD2"  id="route_51"/> <!--MKAAR to CHUO-->
 <route edges="FUU10 FU11 M8 M7 M6 M5 M4 M3 FU4 FUU3"  id="route_52"/> <!--MKAAR to ITV-->
 <route edges="FUU10 FU11 M8 M7 M6 M5 M4 M3 FU4 J6 FUU1"  id="route_52B"/> <!--MKAAR to COCA ALT-->
 <route edges="FUU10 FU11 M8 M7 M6 M5 M4 M3 FD4B FDD4"  id="route_53"/> <!--MKAAR to MWENGEPH-->
  <route edges="FUU10 FU11 M8 M7 M6 M5 M4 M3 FD4B C4 FDD2"  id="route_53B"/> <!--MKAAR to CHUO ALT-->
 <route edges="FUU10 FU11 M8 M7 M6 M5 M4 FD5 FDD6"  id="route_54"/> <!--MKAAR to BAMAGA -->
 <route edges="FUU10 FU11 M8 M7 M6 M5 FU8 FU6 FUU5"  id="route_55"/> <!--MKAAR to MIKOCHENI-->
 <route edges="FUU10 FU11 M8 M7 M6 M5 FD30 FD7 FDD8 FDD10"  id="route_56"/> <!--MKAAR to KNYAMA-->
 <route edges="FUU10 FU11 M8 M7 M6 M5 M4 M3 M2 M1"  id="route_57"/> <!--MKAAR to TEGETA-->
<!--NOTE!!!ZOTE ZA JUU HAZINA ROUTE KUENDA KAIRUKI-->
 <route edges="FUU8 FU9 M20 M21 M22 M23"  id="route_58"/> <!--KAIRUKI to CITY CENTRE -->
 <route edges="FUU8 FU9 M20 M21 M22 FD21 FD19"  id="route_59"/> <!--KAIRUKI TO MAGOMENI -->
 <route edges="FUU8 FU9 M7 M6 M5 M4 M3 M2 FU2 FU0 FUU1"  id="route_60"/> <!--KAIRUKI to COCACOLA-->
 <route edges="J7 FU5 FU7 M4 M3 M2 FU2 FU0 FUU1"  id="route_60AB"/> <!--KAIRUKI to COCACOLA ALT-->
 <route edges="J9 J8 J7 FU5 FU7 M4 M3 M2 FU2 FU0 FUU1"  id="route_60AB1"/> <!--KAIRUKI to COCACOLA ALT2-->
 <route edges="J10 J9 J8 J7 FU5 FU7 M4 M3 M2 FU2 FU0 FUU1"  id="route_60AB11"/> <!--MSK to COCACOLA ALT3-->
 <route edges="FUU14 J10 J9 J8 J7 FU5 FU7 M4 M3 M2 FU2 FU0 FUU1"  id="route_60AB11"/> <!--MSK to COCACOLA ALT4-->
 <route edges="FUU8 FU9 M7 M6 M5 M4 M3 M2 FD3 FD1 FDD2"  id="route_61"/> <!--KAIRUKI to CHUO-->
 <route edges="J7 FU5 FU7 M4 M3 M2 FD3 FD1 FDD2"  id="route_61BB"/> <!--KAIRUKI to CHUO ALT-->
 <route edges="FUU8 FU9 M7 M6 M5 M4 M3 FU4 FUU3"  id="route_62"/> <!--KAIRUKI to ITV-->
 <route edges="FUU8 FU9 M7 M6 M5 M4 M3 FU4 J6 FUU1"  id="route_62B"/> <!--KAIRUKI to COCA ALT-->
 <route edges="FUU8 FU9 M7 M6 M5 M4 M3 FD4B FDD4"  id="route_63"/> <!--KAIRUKI to MWENGEPH-->
  <route edges="FUU8 FU9 M7 M6 M5 M4 M3 FD4B C4 FDD2"  id="route_63B"/> <!--KAIRUKI to CHUO ALT-->
 <route edges="FUU8 FU9 M7 M6 M5 M4 FD5 FDD6"  id="route_64"/> <!--KAIRUKI to BAMAGA -->
 <route edges="FUU8 FU9 M7 M6 M5 FU8 FU6 FUU5"  id="route_65"/> <!--KAIRUKI to MIKOCHENI-->
 <route edges="FUU8 FU9 M7 M6 M5 FD30 FD7 FDD8 FDD10"  id="route_66"/> <!--KAIRUKI to KNYAMA-->
 <route edges="FUU8 FU9 M7 M6 M5 M4 M3 M2 M1"  id="route_67"/> <!--KAIRUKI to TEGETA-->

 <route edges="M13 FU2 FU0 FUU1"  id="route_68"/> <!--TEGETA TO COCACOLA-->
 <route edges="M13 FD3 FD1 FDD2"  id="route_69"/> <!--TEGETA TO CHUO -->
 <route edges="M13 M14 FU4 FUU3"  id="route_70"/> <!--TEGETA to ITV-->
 <route edges="M13 M14 FU4 J6 FUU1"  id="route_70B"/> <!--TEGETA to COCA ALT-->
 <route edges="M13 M14 FD4B FDD4"  id="route_71"/> <!--TEGETA to MWENGEPH-->
 <route edges="M13 M14 M15 FD5 FDD6"  id="route_72"/> <!--TEGETA TO BAMAGA -->
 <route edges="M13 M14 M15 M16 FU8 FU6 FUU5"  id="route_73"/> <!--TEGETA to MIKOCHENI VIA TTCL -->
 <route edges="M13 M14 M15 M16 FD30 FD7 FDD8 FDD10"  id="route_74"/> <!--TEGETA TO KNYAMA-->
 <route edges="M13 M14 M15 FD5 C2 FDD10"  id="route_74B"/> <!--TEGETA TO KIJITONYAMA ALT -->
 <route edges="M13 M14 M15 M16 FD30 FD7 C3 gneE32"  id="route_74C"/> <!--TEGETA TO MAKUMBUSHO-->
 <route edges="M13 M14 M15 M16 FU8 FU6 J2"  id="route_75A"/> <!--TEGETA to KAIRUKI VIA TTCL -->
 <route edges="M13 M14 M15 M16 M17 M18 M19 FU10 FUU7"  id="route_75"/> <!--TEGETA TO KAIRUKI-->
 <route edges="M13 M14 M15 M16 FU8 FU6 J2 FUU7"  id="route_75A"/> <!--TEGETA to KAIRUKI ALT -->
  <route edges="M13 M14 M15 M16 FU8 FU6 J2 J3 FUU9"  id="route_75B"/> <!--TEGETA to MKAAR ALT -->
 <route edges="M13 M14 M15 M16 M17 M18 M19 M20 FU12 FUU9"  id="route_76"/> <!--TEGETA to  MIKOCHENAA -->
 <route edges="M13 M14 M15 M16 M17 M18 M19 M20 M21 FU14 FUU11"  id="route_77"/> <!--TEGETA TO MIKOCHENISHOPPERS-->
 <route edges="M13 M14 M15 M16 M17 M18 M19 M20 M21 FD17"  id="route_78"/> <!--TEGETA TO RESIDENCE-->
 <route edges="M13 M14 M15 M16 M17 M18 M19 M20 M21 M22 FU18 FU16 FUU13"  id="route_79"/> <!--TEGETA TO KAWE-->
 <route edges="M13 M14 M15 M16 M17 M18 M19 M20 M21 M22 FD21 FD19"  id="route_80"/> <!-- TEGETA TO MAGOMENI-->
 <route edges="M13 M14 M15 M16 M17 M18 M19 M20 M21 M22 M23 "  id="route_81"/> <!-- TEGETA TO CITY CENTRE-->

<route edges="FDD1 FD2 FD4 M1"  id="route_181"/> <!--CHUO T0 TEGETA-->
 <route edges="FDD1 FD2 FD4 FU2 FU0 FUU1"  id="route_82"/> <!--CHUO TO COCACOLA-->
 <route edges="FDD1 FD2 FD4 M1"  id="route_83"/> <!--CHUO TO TEGETA -->
 <route edges="FDD1 FD2 FD4 M14 FU4 FUU3"  id="route_84"/> <!--CHUO to ITV-->
  <route edges="FDD1 C1 FD4A FU4 FUU3"  id="route_84B"/> <!--CHUO to ITV ALT-->
  <route edges="FDD1 FD2 FD4 M14 FU4 J6 FUU1"  id="route_84B"/> <!--CHUO to COCA ALT-->
 <route edges="FDD1 FD2 FD4 M14 FD4B FDD4"  id="route_85"/> <!--CHUO to MWENGEPH-->
 <route edges="FDD1 FD2 FD4 M14 M15 FD5 FDD6"  id="route_86"/> <!--CHUO TO BAMAGA -->
 <route edges="FDD1 FD2 FD4 M14 M15 M16 FU8 FU6 FUU5"  id="route_87"/> <!--CHUO to MIKOCHENI VIA TTCL -->
  <route edges="FDD1 FD2 FD4 M14 M15 M16 FU8 FU6 J2 FUU7"  id="route_87B"/> <!--CHUO to KRUKI ALT -->
    <route edges="FDD1 FD2 FD4 M14 M15 M16 FU8 FU6 J2 J3 FUU9"  id="route_87A"/> <!--CHUO to MKAAR ALT -->
 <route edges="FDD1 FD2 FD4 M14 M15 M16 FD30 FD7 FDD8 FDD10"  id="route_88"/> <!--CHUO TO KNYAMA-->
  <route edges="FDD1 FD2 FD4 M14 M15 FD5 C2 FDD10"  id="route_88B"/> <!--CHUO TO KNYAMA ALT -->
 <route edges="FDD1 FD2 FD4 M14 M15 M16 M17 M18 M19 FU10 FUU7"  id="route_89"/> <!--CHUO TO KAIRUKI-->
 <route edges="FDD1 FD2 FD4 M14 M15 M16 M17 M18 M19 M20 FU12 FUU9"  id="route_90"/> <!--CHUO to  MIKOCHENAA -->
 <route edges="FDD1 FD2 FD4 M14 M15 M16 M17 M18 M19 M20 M21 FU14 FUU11"  id="route_91"/> <!--CHUO TO MIKOCHENISHOPPERS-->
 <route edges="FDD1 FD2 FD4 M14 M15 M16 M17 M18 M19 M20 M21 FD17"  id="route_92"/> <!--CHUO TO RESIDENCE-->
 <route edges="FDD1 FD2 FD4 M14 M15 M16 M17 M18 M19 M20 M21 M22 FU18 FU16 FUU13"  id="route_92"/> <!--CHUO TO KAWE-->
 <route edges="FDD1 FD2 FD4 M14 M15 M16 M17 M18 M19 M20 M21 M22 FD21 FD19"  id="route_93"/> <!--CHUO TO MAGOMENI-->
 <route edges="FDD1 FD2 FD4 M14 M15 M16 M17 M18 M19 M20 M21 M22 M23 "  id="route_94"/> <!-- CHUO TO CITY CENTRE-->

 <route edges="FUU2 FU00 FU1 M1"  id="route_95"/> <!--COCACOLA TO TEGETA-->
 <route edges="FUU2 FU00 FU1 FD3 FD1 FDD2"  id="route_96"/> <!--COCACOLA TO CHUO -->
 <route edges="FUU2 FU00 FU1 M14 FU4 FUU3"  id="route_97"/> <!--COCACOLA to ITV-->
  <route edges="FUU2 FU00 FU1 M14 FU4 J6 FUU1"  id="route_97B"/> <!--COCACOLA to COCA ALT-->
 <route edges="FUU2 FU00 FU1 M14 FD4B FDD4"  id="route_98"/> <!--COCACOLA to MWENGEPH-->
  <route edges="FUU2 FU00 FU1 M14 FD4B C4 FDD2"  id="route_98B"/> <!--COCACOLA to COCA ALT-->
 <route edges="FUU2 FU00 FU1 M14 M15 FD5 FDD6"  id="route_99"/> <!--COCACOLA TO BAMAGA -->
 <route edges="FUU2 FU00 FU1 M14 M15 M16 FU8 FU6 FUU5"  id="route_100"/> <!--COCACOLA to MIKOCHENI VIA TTCL -->
  <route edges="FUU2 FU00 FU1 M14 M15 M16 FU8 FU6 J2 FUU7"  id="route_100B"/> <!--COCACOLA to KRUKI ALT -->
    <route edges="FUU2 FU00 FU1 M14 M15 M16 FU8 FU6 J2 J3 FUU9"  id="route_100A"/> <!--COCACOLA to MKAAR ALT -->
 <route edges="FUU2 FU00 FU1 M14 M15 M16 FD30 FD7 FDD8 FDD10"  id="route_101"/> <!--COCACOLA TO KNYAMA-->
  <route edges="FUU2 FU00 FU1 M14 M15 FD5 C2 FDD10"  id="route_101B"/> <!--COCACOLA TO KNYAMA ALT -->
 <route edges="FUU2 FU00 FU1 M14 M15 M16 M17 M18 M19 FU10 FUU7"  id="route_102"/> <!--COCACOLA TO KAIRUKI-->
 <route edges="FUU2 FU00 FU1 M14 M15 M16 M17 M18 M19 M20 FU12 FUU9"  id="route_103"/> <!--COCACOLA to  MIKOCHENAA -->
 <route edges="FUU2 FU00 FU1 M14 M15 M16 M17 M18 M19 M20 M21 FU14 FUU11"  id="route_104"/> <!--COCACOLA TO MIKOCHENISHOPPERS-->
 <route edges="FUU2 FU00 FU1 M14 M15 M16 M17 M18 M19 M20 M21 FD17"  id="route_105"/> <!--COCACOLA TO RESIDENCE-->
 <route edges="FUU2 FU00 FU1 M14 M15 M16 M17 M18 M19 M20 M21 M22 FU18 FU16 FUU13"  id="route_106"/> <!--COCACOLA TO KAWE-->
 <route edges="FUU2 FU00 FU1 M14 M15 M16 M17 M18 M19 M20 M21 M22 FD21 FD19"  id="route_107"/> <!-- COCACOLA TO MAGOMENI-->
 <route edges="FUU2 FU00 FU1 M14 M15 M16 M17 M18 M19 M20 M21 M22 M23 "  id="route_108"/> <!-- COCACOLA TO CITY CENTRE-->

 <route edges="FUU4 FU3 M2 FU2 FU0 FUU1 "  id="route_109"/> <!--ITV TO COCACOLA-->
  <route edges="FUU4 J6 FUU1"  id="route_109B"/> <!--ITV TO COCACOLA ALT-->
 <route edges="FUU4 FU3 M2 FD3 FD1 FDD2"  id="route_110"/> <!--ITV TO CHUO -->
 <route edges="FUU4 FU3 M2 M1"  id="route_111"/> <!--ITV to TEGETA-->
 <route edges="FUU4 FU3 FD4B FDD4"  id="route_112"/> <!--ITV to MWENGEPH-->
  <route edges="FUU4 FU3 FD4B C4 FDD2"  id="route_112B"/> <!--ITV to CHUO ALT-->
 <route edges="FUU4 FU3 M15 FD5 FDD6"  id="route_113"/> <!--ITV TO BAMAGA -->
 <route edges="FUU4 FU3 M15 M16 FU8 FU6 FUU5"  id="route_114"/> <!--ITV to MIKOCHENI VIA TTCL -->
  <route edges="FUU4 FU3 M15 M16 FU8 FU6 J2 FUU7"  id="route_114B"/> <!--ITV to KRUKI ALT -->
    <route edges="FUU4 FU3 M15 M16 FU8 FU6 J2 J3 FUU9"  id="route_114B"/> <!--ITV to MKAAR ALT -->
 <route edges="FUU4 FU3 M15 M16 FD30 FD7 FDD8 FDD10"  id="route_115"/> <!--ITV TO KNYAMA-->
  <route edges="FUU4 FU3 M15 FD5 C2 FDD10"  id="route_115B"/> <!--ITV TO KNYAMA ALT -->
 <route edges="FUU4 FU3 M15 M16 M17 M18 M19 FU10 FUU7"  id="route_116"/> <!--ITV TO KAIRUKI-->
 <route edges="FUU4 FU3 M15 M16 M17 M18 M19 M20 FU12 FUU9"  id="route_118"/> <!--ITV to  MIKOCHENAA -->
 <route edges="FUU4 FU3 M15 M16 M17 M18 M19 M20 M21 FU14 FUU11"  id="route_119"/> <!--ITV TO MIKOCHENISHOPPERS-->
 <route edges="FUU4 FU3 M15 M16 M17 M18 M19 M20 M21 FD17"  id="route_120"/> <!--ITV TO RESIDENCE-->
 <route edges="FUU4 FU3 M15 M16 M17 M18 M19 M20 M21 M22 FU18 FU16 FUU13"  id="route_121"/> <!--ITV TO KAWE-->
 <route edges="FUU4 FU3 M15 M16 M17 M18 M19 M20 M21 M22 FD21 FD19"  id="route_122"/> <!-- ITV TO MAGOMENI-->
 <route edges="FUU4 FU3 M15 M16 M17 M18 M19 M20 M21 M22 M23 "  id="route_123"/> <!--ITV TO CITY CENTRE-->

 <route edges="FDD3 FD4A M2 FU2 FU0 FUU1"  id="route_124"/> <!--MWENGEPH TO COCACOLA-->
 <route edges="FDD3 FD4A M2 FD3 FD1 FDD2"  id="route_125"/> <!--MWENGEPH TO CHUO -->
  <route edges="FDD3 C4 FDD2"  id="route_125"/> <!--MWENGEPH TO CHUO -->
 <route edges="FDD3 FD4A M2 M1"  id="route_126"/> <!--MWENGEPH to TEGETA-->
 <route edges="FDD3 FD4A FU4 FUU3"  id="route_127"/> <!--MWENGEPH to ITV-->
  <route edges="FDD3 FD4A FU4 J6 FUU1"  id="route_127B"/> <!--MWENGEPH to COCA ALT-->
 <route edges="FDD3 FD4A M15 FD5 FDD6"  id="route_128"/> <!--MWENGEPH TO BAMAGA -->
 <route edges="FDD3 FD4A M15 M16 FU8 FU6 FUU5"  id="route_129"/> <!--MWENGEPH to MIKOCHENI VIA TTCL -->
  <route edges="FDD3 FD4A M15 M16 FU8 FU6 J2 FUU7"  id="route_129B"/> <!--MWENGEPH to KRUKI ALT-->
    <route edges="FDD3 FD4A M15 M16 FU8 FU6 J2 J3 FUU9"  id="route_129A"/> <!--MWENGEPH to MKAAR ALT-->
 <route edges="FDD3 FD4A M15 M16 FD30 FD7 FDD8 FDD10"  id="route_130"/> <!--MWENGEPH TO KNYAMA-->
  <route edges="FDD3 FD4A M15 FD5 C2 FDD10"  id="route_130B"/> <!--MWENGEPH TO KNYAMA ALT -->
 <route edges="FDD3 FD4A M15 M16 M17 M18 M19 FU10 FUU7"  id="route_131"/> <!--MWENGEPH TO KAIRUKI-->
 <route edges="FDD3 FD4A M15 M16 M17 M18 M19 M20 FU12 FUU9"  id="route_132"/> <!--MWENGEPH to  MIKOCHENAA -->
 <route edges="FDD3 FD4A M15 M16 M17 M18 M19 M20 M21 FU14 FUU11"  id="route_133"/> <!--MWENGEPH TO MIKOCHENISHOPPERS-->
 <route edges="FDD3 FD4A M15 M16 M17 M18 M19 M20 M21 FD17"  id="route_134"/> <!--MWENGEPH TO RESIDENCE-->
 <route edges="FDD3 FD4A M15 M16 M17 M18 M19 M20 M21 M22 FU18 FU16 FUU13"  id="route_135"/> <!--MWENGEPH TO KAWE-->
 <route edges="FDD3 FD4A M15 M16 M17 M18 M19 M20 M21 M22 FD21 FD19"  id="route_136"/> <!-- MWENGEPH TO MAGOMENI-->
 <route edges="FDD3 FD4A M15 M16 M17 M18 M19 M20 M21 M22 M23 "  id="route_137"/> <!--MWENGEPH TO CITY CENTRE-->

 <route edges="FDD5 FD6 M3 M2 FU2 FU0 FUU1"  id="route_138"/> <!--BAMAGA TO COCACOLA-->
 <route edges="FDD5 FD6 M3 M2 FD3 FD1 FDD2"  id="route_139"/> <!--BAMAGA TO CHUO -->
 <route edges="FDD5 FD6 M3 M2 M1"  id="route_140"/> <!--BAMAGA to TEGETA-->
 <route edges="FDD5 FD6 M3 FD4B FDD4"  id="route_141"/> <!--BAMAGA to MWENGEPH-->
  <route edges="FDD5 FD6 M3 FD4B C4 FDD2"  id="route_141B"/> <!--BAMAGA to CHUO ALT-->
 <route edges="FDD5 FD6 M3 FU4 FUU3"  id="route_142"/> <!-- BAMAGA TO ITV -->
  <route edges="FDD5 FD6 M3 FU4 J6 FUU1"  id="route_142B"/> <!-- BAMAGA TO COCAALT-->
 <route edges="FDD5 FD6 M16 FU8 FU6 FUU5"  id="route_143"/> <!--BAMAGA to MIKOCHENI VIA TTCL -->
  <route edges="FDD5 FD6 M16 FU8 FU6 J2 FUU7"  id="route_143B"/> <!--BAMAGA to KRUKI ALT -->
    <route edges="FDD5 FD6 M16 FU8 FU6 J2 J3 FUU9"  id="route_143A"/> <!--BAMAGA to MKAAR ALT -->
 <route edges="FDD5 FD6 M16 FD30 FD7 FDD8 FDD10"  id="route_144"/> <!--BAMAGA TO KNYAMA-->
 <route edges="FDD5 FD6 M16 M17 M18 M19 FU10 FUU7"  id="route_145"/> <!--BAMAGA TO KAIRUKI-->
 <route edges="FDD5 FD6 M16 M17 M18 M19 M20 FU12 FUU9"  id="route_146"/> <!--BAMAGA to  MIKOCHENAA -->
 <route edges="FDD5 FD6 M16 M17 M18 M19 M20 M21 FU14 FUU11"  id="route_147"/> <!--BAMAGA TO MIKOCHENISHOPPERS-->
 <route edges="FDD5 FD6 M16 M17 M18 M19 M20 M21 FD17"  id="route_148"/> <!--BAMAGA TO RESIDENCE-->
 <route edges="FDD5 FD6 M16 M17 M18 M19 M20 M21 M22 FU18 FU16 FUU13"  id="route_149"/> <!--BAMAGA TO KAWE-->
 <route edges="FDD5 FD6 M16 M17 M18 M19 M20 M21 M22 FD21 FD19"  id="route_150"/> <!-- BAMAGA TO MAGOMENI-->
 <route edges="FDD5 FD6 M16 M17 M18 M19 M20 M21 M22 M23 "  id="route_151"/> <!--BAMAGA TO CITY CENTRE-->

 <route edges="FUU6 FU5 FU7 M4 M3 M2 FU2 FU0 FUU1"  id="route_152"/> <!--MIKOCHENIVIATTCL TO COCACOLA-->
 <route edges="FUU6 FU5 FU7 M4 M3 M2 FD3 FD1 FDD2"  id="route_153"/> <!--MIKOCHENIVIATTCL TO CHUO -->
 <route edges="FUU6 FU5 FU7 M4 M3 M2 M1"  id="route_154"/> <!--MIKOCHENIVIATTCL to TEGETA-->
 <route edges="FUU6 FU5 FU7 M4 M3 FD4B FDD4"  id="route_155"/> <!--MIKOCHENIVIATTCL to MWENGEPH-->
  <route edges="FUU6 FU5 FU7 M4 M3 FD4B C4 FDD2"  id="route_155B"/> <!--MIKOCHENIVIATTCL to CHUO ALT-->
 <route edges="FUU6 FU5 FU7 M4 M3 FU4 FUU3"  id="route_156"/> <!-- MIKOCHENIVIATTCL TO ITV -->
  <route edges="FUU6 FU5 FU7 M4 M3 FU4 J6 FUU1"  id="route_156B"/> <!-- MIKOCHENIVIATTCL TO COCA ALT-->
 <route edges="FUU6 FU5 FU7 M4 FD5 FDD6"  id="route_157"/> <!-- MIKOCHENI VIA TTCL TO BAMAGA -->
 <route edges="FUU6 FU5 FU7 FD30 FD7 FDD8 FDD10"  id="route_158"/> <!--MKVIATTCL TO KNYAMA-->
 <route edges="FUU6 FU5 FU7 M17 M18 M19 FU10 FUU7"  id="route_159"/> <!--MKVIATTCL TO KAIRUKI-->
  <route edges="FUU6 J2 FUU7"  id="route_159B"/> <!--MKVIATTCL TO KAIRUKI ALT-->
    <route edges="FUU6 J2 J3 FUU9"  id="route_159A"/> <!--MKVIATTCL TO MKAAR ALT-->
 <route edges="FUU6 FU5 FU7 M17 M18 M19 M20 FU12 FUU9"  id="route_160"/> <!--MKVIATTCL to  MIKOCHENAA -->
 <route edges="FUU6 FU5 FU7 M17 M18 M19 M20 M21 FU14 FUU11"  id="route_161"/> <!--MKVIATTCL TO MIKOCHENISHOPPERS-->
 <route edges="FUU6 FU5 FU7 M17 M18 M19 M20 M21 FD17"  id="route_162"/> <!--MKVIATTCL TO RESIDENCE-->
 <route edges="FUU6 FU5 FU7 M17 M18 M19 M20 M21 M22 FU18 FU16 FUU13"  id="route_163"/> <!--MKVIATTCL TO KAWE-->
 <route edges="FUU6 FU5 FU7 M17 M18 M19 M20 M21 M22 FD21 FD19"  id="route_164"/> <!-- MKVIATTCL TO MAGOMENI-->
 <route edges="FUU6 FU5 FU7 M17 M18 M19 M20 M21 M22 M23 "  id="route_165"/> <!--MKVIATTCL TO CITY CENTRE-->

 <route edges="FDD9 FDD7 FD8 FD M4 M3 M2 FU2 FU0 FUU1"  id="route_166"/> <!--KNYAMA TO COCACOLA-->
 <route edges="FDD9 FDD7 FD8 FD M4 M3 M2 FD3 FD1 FDD2"  id="route_167"/> <!--KNYAMA TO CHUO -->
 <route edges="FDD9 FDD7 FD8 FD M4 M3 M2 M1"  id="route_168"/> <!--KNYAMA to TEGETA-->
 <route edges="FDD9 FDD7 FD8 FD M4 M3 FD4B FDD4"  id="route_169"/> <!--KNYAMA to MWENGEPH-->
  <route edges="FDD9 FDD7 FD8 FD M4 M3 FD4B C4 FDD2"  id="route_169B"/> <!--KNYAMA to CHUO ALT-->
 <route edges="FDD9 FDD7 FD8 FD M4 M3 FU4 FUU3"  id="route_170"/> <!-- KNYAMA TO ITV -->
  <route edges="FDD9 FDD7 FD8 FD M4 M3 FU4 J6 FUU1"  id="route_170B"/> <!-- KNYAMA TO COCA ALT -->
 <route edges="FDD9 FDD7 FD8 FD M4 FD5 FDD6"  id="route_171"/> <!-- KNYAMA TO BAMAGA -->
 <route edges="FDD9 FDD7 FD8 FD FU8 FU6 FUU5"  id="route_172"/> <!-- KNYAMA TO MKVIATTCL-->
  <route edges="FDD9 FDD7 FD8 FD FU8 FU6 J2 FUU7"  id="route_172B"/> <!-- KNYAMA TO kruki alt-->
    <route edges="FDD9 FDD7 FD8 FD FU8 FU6 J2 J3 FUU9"  id="route_172A"/> <!-- KNYAMA TO MKAAR alt-->
 <route edges="FDD9 FDD7 FD8 FD M17 M18 M19 FU10 FUU7"  id="route_173"/> <!--KNYAMA TO KAIRUKI-->
 <route edges="FDD9 FDD7 FD8 FD M17 M18 M19 M20 FU12 FUU9"  id="route_174"/> <!--KNYAMA to  MIKOCHENAA -->
 <route edges="FDD9 FDD7 FD8 FD M17 M18 M19 M20 M21 FU14 FUU11"  id="route_175"/> <!--KNYAMA TO MIKOCHENISHOPPERS-->
 <route edges="FDD9 FDD7 FD8 FD M17 M18 M19 M20 M21 FD17"  id="route_176"/> <!--KNYAMA TO RESIDENCE-->
 <route edges="FDD9 FDD7 FD8 FD M17 M18 M19 M20 M21 M22 FU18 FU16 FUU13"  id="route_177"/> <!--KNYAMA TO KAWE-->
 <route edges="FDD9 FDD7 FD8 FD M17 M18 M19 M20 M21 M22 FD21 FD19"  id="route_179"/> <!-- KNYAMA TO MAGOMENI-->
 <route edges="FDD9 FDD7 FD8 FD M17 M18 M19 M20 M21 M22 M23 FD4A FD4B FU7 M16"  id="route_180"/> <!--KNYAMA TO CITY CENTRE-->





 </routeDistribution>


    <vehicle id="0"  type="vdist1" route="rdist1" depart="0"/>
    <vehicle id="1"  type="vdist1" route="rdist1" depart="0"/>
    <vehicle id="2"  type="vdist1" route="rdist1" depart="0"/>
    <vehicle id="3"  type="vdist1" route="rdist1" depart="0"/>
    <vehicle id="4"  type="vdist1" route="rdist1" depart="0"/>
    <vehicle id="5"  type="vdist1" route="rdist1" depart="0" />
    <vehicle id="6"  type="vdist1" route="rdist1" depart="0"/>
    <vehicle id="7"  type="vdist1" route="rdist1" depart="0"/>
    <vehicle id="8"  type="vdist1" route="rdist1" depart="0"/>
    <vehicle id="9"  type="vdist1" route="rdist1" depart="0"/>
    <vehicle id="10" type="vdist1" route="rdist1" depart="0"/>
    <vehicle id="11" type="vdist1" route="rdist1" depart="0" />
    <vehicle id="12" type="vdist1" route="rdist1" depart="0"/>
    <vehicle id="13" type="vdist1" route="rdist1" depart="0"/>
    <vehicle id="14" type="vdist1" route="rdist1" depart="0"/>
    <vehicle id="15" type="vdist1" route="rdist1" depart="0"/>
    <vehicle id="16" type="vdist1" route="rdist1" depart="0"/>
    <vehicle id="17" type="vdist1" route="rdist1" depart="0" />
    <vehicle id="18" type="vdist1" route="rdist1" depart="0"/>
    <vehicle id="19" type="vdist1" route="rdist1" depart="0"/>
    <vehicle id="20" type="vdist1" route="rdist1" depart="0"/>
    <vehicle id="21" type="vdist1" route="rdist1" depart="0"/>
    <vehicle id="22" type="vdist1" route="rdist1" depart="0"/>
    <vehicle id="23" type="vdist1" route="rdist1" depart="0" />
    <vehicle id="24" type="vdist1" route="rdist1" depart="0"/>
    <vehicle id="25" type="vdist1" route="rdist1" depart="0"/>
    <vehicle id="26" type="vdist1" route="rdist1" depart="0"/>
    <vehicle id="27" type="vdist1" route="rdist1" depart="0"/>
    <vehicle id="28" type="vdist1" route="rdist1" depart="0"/>
    <vehicle id="29" type="vdist1" route="rdist1" depart="0" />
    <vehicle id="30" type="vdist1" route="rdist1" depart="0"/>
    <vehicle id="31" type="vdist1" route="rdist1" depart="0"/>
    <vehicle id="32" type="vdist1" route="rdist1" depart="0"/>
    <vehicle id="33" type="vdist1" route="rdist1" depart="0"/>
    <vehicle id="34" type="vdist1" route="rdist1" depart="0"/>
    <vehicle id="35" type="vdist1" route="rdist1" depart="0" />
    <vehicle id="36" type="vdist1" route="rdist1" depart="0"/>
    <vehicle id="37" type="vdist1" route="rdist1" depart="0"/>
    <vehicle id="38" type="vdist1" route="rdist1" depart="0"/>
    <vehicle id="39" type="vdist1" route="rdist1" depart="0"/>
    <vehicle id="40" type="vdist1" route="rdist1" depart="0"/>
    <vehicle id="41" type="vdist1" route="rdist1" depart="0" />
    <vehicle id="42" type="vdist1" route="rdist1" depart="0"/>
    <vehicle id="43" type="vdist1" route="rdist1" depart="0"/>
    <vehicle id="44" type="vdist1" route="rdist1" depart="0"/>
    <vehicle id="45" type="vdist1" route="rdist1" depart="0"/>
    <vehicle id="46" type="vdist1" route="rdist1" depart="0"/>
    <vehicle id="47" type="vdist1" route="rdist1" depart="0" />
    <vehicle id="48" type="vdist1" route="rdist1" depart="0"/>
    <vehicle id="49" type="vdist1" route="rdist1" depart="0"/>
    <vehicle id="50" type="vdist1" route="rdist1" depart="0"/>